*SPEF "IEEE 1481.1999"
*DESIGN "sram8t"
*DATE "22:40:09 Tuesday July 08, 2025"
*VENDOR "unknown"
*PROGRAM "qrouter"
*VERSION "unknown"
*DESIGN_FLOW "qflow"
*DIVIDER /
*DELIMITER :
*BUS_DELIMITER <>
*T_UNIT 1 PS
*C_UNIT 1 FF
*R_UNIT 1 OHM
*L_UNIT 1 HENRY

*NAME_MAP
*1 _18_
*2 INVX8_1
*3 MUX2X1_33
*4 AOI21X1_16
*5 MUX2X1_17
*6 MUX2X1_57
*7 MUX2X1_95
*8 MUX2X1_79
*9 AOI21X1_32
*10 MUX2X1_9
*11 MUX2X1_19
*12 MUX2X1_71
*13 MUX2X1_49
*14 MUX2X1_1
*15 MUX2X1_41
*16 AOI21X1_34
*17 MUX2X1_87
*18 AOI21X1_24
*19 _26_
*20 INVX8_2
*21 MUX2X1_80
*22 MUX2X1_42
*23 MUX2X1_58
*24 MUX2X1_20
*25 MUX2X1_88
*26 MUX2X1_34
*27 MUX2X1_2
*28 MUX2X1_50
*29 AOI21X1_25
*30 AOI21X1_9
*31 MUX2X1_72
*32 MUX2X1_10
*33 AOI21X1_17
*34 MUX2X1_96
*35 MUX2X1_64
*36 MUX2X1_26
*37 _32_
*38 INVX8_3
*39 MUX2X1_73
*40 AOI21X1_26
*41 MUX2X1_3
*42 MUX2X1_97
*43 MUX2X1_43
*44 MUX2X1_81
*45 MUX2X1_89
*46 MUX2X1_59
*47 MUX2X1_35
*48 MUX2X1_27
*49 MUX2X1_21
*50 MUX2X1_65
*51 AOI21X1_18
*52 MUX2X1_51
*53 AOI21X1_10
*54 MUX2X1_11
*55 _34_
*56 INVX8_4
*57 MUX2X1_98
*58 MUX2X1_66
*59 AOI21X1_19
*60 AOI21X1_11
*61 MUX2X1_12
*62 MUX2X1_52
*63 MUX2X1_74
*64 MUX2X1_4
*65 AOI21X1_27
*66 MUX2X1_90
*67 MUX2X1_82
*68 MUX2X1_44
*69 MUX2X1_22
*70 MUX2X1_36
*71 MUX2X1_60
*72 MUX2X1_28
*73 _36_
*74 INVX8_5
*75 MUX2X1_45
*76 MUX2X1_61
*77 MUX2X1_91
*78 MUX2X1_23
*79 MUX2X1_29
*80 MUX2X1_37
*81 MUX2X1_83
*82 MUX2X1_99
*83 AOI21X1_20
*84 MUX2X1_53
*85 AOI21X1_12
*86 MUX2X1_13
*87 MUX2X1_67
*88 MUX2X1_75
*89 AOI21X1_28
*90 MUX2X1_5
*91 _38_
*92 INVX8_6
*93 AOI21X1_33
*94 MUX2X1_18
*95 MUX2X1_100
*96 MUX2X1_38
*97 MUX2X1_46
*98 MUX2X1_68
*99 MUX2X1_30
*100 AOI21X1_23
*101 MUX2X1_84
*102 MUX2X1_14
*103 MUX2X1_92
*104 MUX2X1_54
*105 MUX2X1_76
*106 AOI21X1_29
*107 AOI21X1_13
*108 MUX2X1_6
*109 _40_
*110 INVX8_7
*111 MUX2X1_31
*112 MUX2X1_39
*113 MUX2X1_24
*114 MUX2X1_62
*115 MUX2X1_69
*116 MUX2X1_101
*117 MUX2X1_55
*118 MUX2X1_7
*119 AOI21X1_30
*120 MUX2X1_77
*121 MUX2X1_47
*122 MUX2X1_85
*123 AOI21X1_21
*124 AOI21X1_14
*125 MUX2X1_15
*126 MUX2X1_93
*127 _42_
*128 INVX8_8
*129 MUX2X1_16
*130 AOI21X1_15
*131 MUX2X1_56
*132 AOI21X1_22
*133 MUX2X1_8
*134 AOI21X1_31
*135 MUX2X1_78
*136 MUX2X1_48
*137 MUX2X1_86
*138 MUX2X1_70
*139 MUX2X1_102
*140 MUX2X1_94
*141 MUX2X1_32
*142 MUX2X1_40
*143 MUX2X1_63
*144 MUX2X1_25
*145 _56_
*146 NOR2X1_2
*147 OAI21X1_15
*148 OAI21X1_9
*149 NOR2X1_16
*150 NOR2X1_17
*151 NOR2X1_18
*152 OAI21X1_3
*153 OAI21X1_5
*154 NOR2X1_13
*155 OAI21X1_7
*156 NOR2X1_15
*157 NOR2X1_14
*158 NOR2X1_3
*159 OAI21X1_1
*160 OAI21X1_11
*161 NOR2X1_19
*162 OAI21X1_13
*163 _264_
*164 AND2X2_1
*165 NOR2X1_24
*166 AOI21X1_13
*167 NOR2X1_20
*168 AOI21X1_9
*169 NOR2X1_21
*170 AOI21X1_10
*171 NOR2X1_27
*172 AOI21X1_16
*173 NOR2X1_26
*174 AOI21X1_15
*175 NOR2X1_23
*176 AOI21X1_12
*177 AOI21X1_14
*178 NOR2X1_25
*179 NOR2X1_22
*180 AOI21X1_11
*181 _292_
*182 AND2X2_2
*183 AOI21X1_29
*184 NOR2X1_42
*185 AOI21X1_32
*186 NOR2X1_45
*187 AOI21X1_25
*188 NOR2X1_38
*189 AOI21X1_26
*190 NOR2X1_39
*191 NOR2X1_43
*192 AOI21X1_30
*193 NOR2X1_44
*194 AOI21X1_31
*195 AOI21X1_28
*196 NOR2X1_41
*197 NOR2X1_40
*198 AOI21X1_27
*199 _273_
*200 NOR2X1_28
*201 MUX2X1_18
*202 AOI21X1_19
*203 NOR2X1_31
*204 NOR2X1_29
*205 NOR2X1_33
*206 NOR2X1_30
*207 AOI21X1_18
*208 NOR2X1_34
*209 AOI21X1_22
*210 NOR2X1_32
*211 AOI21X1_20
*212 MUX2X1_19
*213 AOI21X1_21
*214 AOI21X1_17
*215 clk_bF_buf10
*216 CLKBUF1_1
*217 DFFPOSX1_87
*218 DFFPOSX1_102
*219 DFFPOSX1_53
*220 DFFPOSX1_120
*221 DFFPOSX1_56
*222 DFFPOSX1_103
*223 DFFPOSX1_98
*224 DFFPOSX1_82
*225 DFFPOSX1_86
*226 DFFPOSX1_99
*227 DFFPOSX1_49
*228 DFFPOSX1_112
*229 DFFPOSX1_77
*230 clk_bF_buf9
*231 CLKBUF1_2
*232 DFFPOSX1_43
*233 DFFPOSX1_11
*234 DFFPOSX1_44
*235 DFFPOSX1_92
*236 DFFPOSX1_13
*237 DFFPOSX1_12
*238 DFFPOSX1_1
*239 DFFPOSX1_41
*240 DFFPOSX1_121
*241 DFFPOSX1_89
*242 DFFPOSX1_10
*243 DFFPOSX1_3
*244 DFFPOSX1_125
*245 clk_bF_buf8
*246 CLKBUF1_3
*247 DFFPOSX1_2
*248 DFFPOSX1_45
*249 DFFPOSX1_69
*250 DFFPOSX1_96
*251 DFFPOSX1_16
*252 DFFPOSX1_48
*253 DFFPOSX1_122
*254 DFFPOSX1_29
*255 DFFPOSX1_126
*256 DFFPOSX1_118
*257 DFFPOSX1_6
*258 DFFPOSX1_93
*259 DFFPOSX1_5
*260 clk_bF_buf7
*261 CLKBUF1_4
*262 DFFPOSX1_88
*263 DFFSR_5
*264 DFFPOSX1_62
*265 DFFPOSX1_55
*266 DFFPOSX1_101
*267 DFFPOSX1_79
*268 DFFPOSX1_115
*269 DFFPOSX1_117
*270 DFFPOSX1_106
*271 DFFPOSX1_27
*272 DFFPOSX1_100
*273 DFFSR_6
*274 DFFSR_7
*275 clk_bF_buf6
*276 CLKBUF1_5
*277 DFFPOSX1_76
*278 DFFPOSX1_42
*279 DFFPOSX1_39
*280 DFFPOSX1_78
*281 DFFPOSX1_73
*282 DFFPOSX1_33
*283 DFFPOSX1_60
*284 DFFPOSX1_35
*285 DFFPOSX1_75
*286 DFFPOSX1_38
*287 DFFPOSX1_36
*288 DFFPOSX1_109
*289 clk_bF_buf5
*290 CLKBUF1_6
*291 DFFPOSX1_30
*292 DFFPOSX1_85
*293 DFFSR_8
*294 DFFPOSX1_31
*295 DFFPOSX1_63
*296 DFFPOSX1_97
*297 DFFPOSX1_83
*298 DFFPOSX1_81
*299 DFFPOSX1_58
*300 DFFPOSX1_111
*301 DFFPOSX1_26
*302 DFFPOSX1_110
*303 clk_bF_buf4
*304 CLKBUF1_7
*305 DFFPOSX1_54
*306 DFFPOSX1_18
*307 DFFPOSX1_34
*308 DFFPOSX1_21
*309 DFFPOSX1_24
*310 DFFPOSX1_64
*311 DFFPOSX1_37
*312 DFFPOSX1_123
*313 DFFPOSX1_22
*314 DFFPOSX1_113
*315 DFFPOSX1_40
*316 DFFPOSX1_74
*317 clk_bF_buf3
*318 CLKBUF1_8
*319 DFFPOSX1_9
*320 DFFPOSX1_47
*321 DFFPOSX1_94
*322 DFFPOSX1_95
*323 DFFPOSX1_65
*324 DFFPOSX1_90
*325 DFFPOSX1_15
*326 DFFPOSX1_67
*327 DFFPOSX1_46
*328 DFFPOSX1_14
*329 DFFPOSX1_70
*330 DFFPOSX1_91
*331 clk_bF_buf2
*332 CLKBUF1_9
*333 DFFPOSX1_114
*334 DFFPOSX1_19
*335 DFFPOSX1_17
*336 DFFPOSX1_51
*337 DFFPOSX1_50
*338 DFFPOSX1_104
*339 DFFPOSX1_116
*340 DFFPOSX1_52
*341 DFFPOSX1_20
*342 DFFPOSX1_61
*343 DFFPOSX1_23
*344 DFFPOSX1_80
*345 clk_bF_buf1
*346 CLKBUF1_10
*347 DFFPOSX1_71
*348 DFFPOSX1_66
*349 DFFPOSX1_4
*350 DFFPOSX1_8
*351 DFFPOSX1_124
*352 DFFPOSX1_68
*353 DFFPOSX1_119
*354 DFFPOSX1_128
*355 DFFPOSX1_127
*356 DFFPOSX1_7
*357 DFFPOSX1_72
*358 DFFPOSX1_32
*359 clk_bF_buf0
*360 CLKBUF1_11
*361 DFFPOSX1_57
*362 DFFPOSX1_105
*363 DFFPOSX1_25
*364 DFFPOSX1_84
*365 DFFSR_4
*366 DFFSR_2
*367 DFFPOSX1_108
*368 DFFPOSX1_59
*369 DFFPOSX1_107
*370 DFFPOSX1_28
*371 DFFSR_1
*372 DFFSR_3
*373 _23_
*374 INVX4_1
*375 NAND2X1_59
*376 NAND2X1_57
*377 NAND2X1_2
*378 NAND2X1_56
*379 NAND2X1_61
*380 NAND3X1_1
*381 AND2X2_2
*382 NAND2X1_4
*383 NAND2X1_58
*384 AND2X2_1
*385 NAND2X1_62
*386 NAND2X1_60
*387 clk
*388 CLKBUF1_8
*389 CLKBUF1_5
*390 CLKBUF1_11
*391 CLKBUF1_4
*392 CLKBUF1_6
*393 CLKBUF1_1
*394 CLKBUF1_9
*395 CLKBUF1_3
*396 CLKBUF1_10
*397 CLKBUF1_7
*398 CLKBUF1_2
*399 _280_
*400 NOR2X1_35
*401 AOI21X1_24
*402 NOR2X1_37
*403 MUX2X1_24
*404 MUX2X1_25
*405 MUX2X1_22
*406 MUX2X1_21
*407 MUX2X1_20
*408 NOR2X1_36
*409 AOI21X1_23
*410 MUX2X1_23
*411 _318_
*412 NOR2X1_46
*413 NOR2X1_47
*414 AOI21X1_33
*415 AOI21X1_34
*416 NOR2X1_48
*417 MUX2X1_62
*418 MUX2X1_63
*419 MUX2X1_59
*420 MUX2X1_61
*421 MUX2X1_58
*422 MUX2X1_60
*423 _27_
*424 INVX4_2
*425 NAND3X1_1
*426 NAND3X1_29
*427 NAND3X1_9
*428 NAND3X1_12
*429 NAND3X1_17
*430 NAND3X1_24
*431 NAND3X1_2
*432 NAND3X1_5
*433 NAND3X1_21
*434 _29_
*435 INVX4_3
*436 NAND3X1_1
*437 NAND3X1_29
*438 NAND3X1_17
*439 NAND3X1_12
*440 NAND3X1_9
*441 NAND3X1_24
*442 NAND3X1_2
*443 NAND3X1_5
*444 NAND3X1_21
*445 _46_
*446 NOR2X1_1
*447 AOI22X1_6
*448 AOI22X1_12
*449 NAND2X1_53
*450 AOI22X1_20
*451 AOI22X1_17
*452 NAND2X1_36
*453 AOI22X1_9
*454 NAND2X1_4
*455 AOI22X1_3
*456 _81_
*457 NAND2X1_11
*458 OR2X2_3
*459 OAI21X1_12
*460 OAI21X1_14
*461 OAI21X1_2
*462 OAI21X1_6
*463 OAI21X1_4
*464 OAI22X1_8
*465 OAI22X1_5
*466 OAI21X1_8
*467 _82_
*468 NOR2X1_5
*469 AOI22X1_21
*470 NAND2X1_56
*471 AOI22X1_13
*472 NAND2X1_46
*473 NAND2X1_12
*474 NAND2X1_23
*475 NAND2X1_18
*476 NAND2X1_29
*477 NAND2X1_40
*478 _89_
*479 NOR2X1_7
*480 NAND2X1_60
*481 AOI22X1_23
*482 NAND2X1_39
*483 NAND2X1_14
*484 NAND2X1_42
*485 NAND2X1_20
*486 NAND2X1_48
*487 NAND2X1_25
*488 NAND2X1_31
*489 _92_
*490 NOR2X1_8
*491 AOI22X1_7
*492 AOI22X1_4
*493 NAND2X1_59
*494 AOI22X1_15
*495 AOI22X1_18
*496 AOI22X1_10
*497 AOI22X1_1
*498 NAND2X1_34
*499 NAND2X1_51
*500 _94_
*501 NOR2X1_9
*502 AOI22X1_5
*503 NAND2X1_61
*504 NAND2X1_37
*505 AOI22X1_19
*506 AOI22X1_16
*507 AOI22X1_8
*508 AOI22X1_2
*509 AOI22X1_11
*510 NAND2X1_54
*511 _98_
*512 NOR2X1_11
*513 AOI22X1_12
*514 AOI22X1_6
*515 AOI22X1_17
*516 AND2X2_1
*517 AOI22X1_14
*518 AOI22X1_3
*519 AOI22X1_9
*520 AOI22X1_20
*521 AOI22X1_22
*522 _100_
*523 NOR3X1_4
*524 AND2X2_2
*525 AOI22X1_14
*526 NAND2X1_52
*527 NAND2X1_16
*528 NAND2X1_44
*529 NAND2X1_30
*530 NAND2X1_47
*531 NAND2X1_19
*532 NAND2X1_27
*533 _21_
*534 NOR3X1_1
*535 AOI22X1_7
*536 AOI22X1_4
*537 AOI22X1_15
*538 NAND2X1_2
*539 AOI22X1_18
*540 AOI22X1_10
*541 AOI22X1_1
*542 INVX1_43
*543 _24_
*544 NAND2X1_2
*545 MUX2X1_100
*546 MUX2X1_1
*547 MUX2X1_102
*548 MUX2X1_96
*549 MUX2X1_99
*550 MUX2X1_98
*551 MUX2X1_101
*552 MUX2X1_97
*553 _30_
*554 NAND3X1_1
*555 MUX2X1_8
*556 MUX2X1_3
*557 MUX2X1_5
*558 MUX2X1_6
*559 MUX2X1_4
*560 MUX2X1_2
*561 MUX2X1_7
*562 MUX2X1_9
*563 _47_
*564 NAND2X1_4
*565 MUX2X1_15
*566 MUX2X1_12
*567 MUX2X1_10
*568 MUX2X1_14
*569 MUX2X1_11
*570 MUX2X1_17
*571 MUX2X1_13
*572 MUX2X1_16
*573 _95_
*574 NOR2X1_10
*575 AOI22X1_5
*576 NAND2X1_57
*577 AOI22X1_19
*578 AOI22X1_16
*579 AOI22X1_8
*580 AOI22X1_11
*581 AOI22X1_2
*582 INVX1_45
*583 _284_
*584 NAND2X1_56
*585 MUX2X1_30
*586 MUX2X1_29
*587 MUX2X1_26
*588 MUX2X1_27
*589 MUX2X1_32
*590 MUX2X1_28
*591 MUX2X1_31
*592 MUX2X1_33
*593 _301_
*594 OR2X2_3
*595 MUX2X1_38
*596 MUX2X1_41
*597 MUX2X1_37
*598 MUX2X1_34
*599 MUX2X1_36
*600 MUX2X1_40
*601 MUX2X1_39
*602 MUX2X1_35
*603 _303_
*604 NAND2X1_57
*605 MUX2X1_48
*606 MUX2X1_43
*607 MUX2X1_49
*608 MUX2X1_46
*609 MUX2X1_44
*610 MUX2X1_42
*611 MUX2X1_47
*612 MUX2X1_45
*613 _310_
*614 NAND2X1_58
*615 MUX2X1_54
*616 MUX2X1_56
*617 MUX2X1_51
*618 MUX2X1_57
*619 MUX2X1_53
*620 MUX2X1_50
*621 MUX2X1_55
*622 MUX2X1_52
*623 _322_
*624 NAND2X1_59
*625 MUX2X1_69
*626 MUX2X1_70
*627 MUX2X1_64
*628 MUX2X1_66
*629 MUX2X1_65
*630 MUX2X1_67
*631 MUX2X1_71
*632 MUX2X1_68
*633 _331_
*634 NAND2X1_60
*635 MUX2X1_79
*636 MUX2X1_76
*637 MUX2X1_72
*638 MUX2X1_75
*639 MUX2X1_74
*640 MUX2X1_78
*641 MUX2X1_73
*642 MUX2X1_77
*643 _340_
*644 NAND2X1_61
*645 MUX2X1_87
*646 MUX2X1_81
*647 MUX2X1_84
*648 MUX2X1_86
*649 MUX2X1_82
*650 MUX2X1_85
*651 MUX2X1_83
*652 MUX2X1_80
*653 _348_
*654 NAND2X1_62
*655 MUX2X1_92
*656 MUX2X1_95
*657 MUX2X1_94
*658 MUX2X1_93
*659 MUX2X1_89
*660 MUX2X1_88
*661 MUX2X1_91
*662 MUX2X1_90
*663 rst_n
*664 DFFSR_3
*665 DFFSR_1
*666 DFFSR_4
*667 DFFSR_2
*668 DFFSR_6
*669 DFFSR_5
*670 DFFSR_7
*671 DFFSR_8
*672 _69_
*673 NAND2X1_7
*674 NOR2X1_46
*675 OAI22X1_6
*676 OAI22X1_7
*677 OAI22X1_2
*678 OAI22X1_3
*679 OAI22X1_4
*680 OAI22X1_1
*681 _73_
*682 INVX4_5
*683 NOR2X1_35
*684 OAI22X1_1
*685 OAI22X1_4
*686 OAI22X1_3
*687 OAI22X1_2
*688 OAI22X1_7
*689 OAI22X1_6
*690 _102_
*691 NOR2X1_12
*692 INVX2_5
*693 NAND2X1_33
*694 NAND2X1_50
*695 NAND2X1_22
*696 NAND2X1_45
*697 NAND2X1_17
*698 NAND2X1_28
*699 _61_
*700 INVX4_4
*701 OAI21X1_11
*702 OAI21X1_13
*703 OAI21X1_3
*704 OAI21X1_5
*705 OAI21X1_7
*706 OAI21X1_1
*707 _86_
*708 NOR2X1_6
*709 AOI22X1_22
*710 NAND2X1_35
*711 NAND2X1_58
*712 NAND2X1_24
*713 NAND2X1_13
*714 NAND2X1_41
*715 addr[1]
*716 OR2X2_2
*717 INVX1_2
*718 NAND2X1_5
*719 NOR3X1_2
*720 NAND2X1_9
*721 addr[2]
*722 NAND2X1_8
*723 INVX1_27
*724 NAND2X1_6
*725 NOR3X1_4
*726 OR2X2_1
*727 addr[0]
*728 INVX1_24
*729 OR2X2_2
*730 NAND2X1_5
*731 NAND2X1_3
*732 NOR3X1_1
*733 _22_
*734 NAND2X1_1
*735 OR2X2_3
*736 NOR2X1_28
*737 NOR2X1_35
*738 NOR2X1_46
*739 INVX4_1
*740 _45_
*741 OR2X2_2
*742 NOR2X1_5
*743 NOR2X1_9
*744 NOR2X1_6
*745 INVX2_4
*746 NOR2X1_1
*747 addr[3]
*748 NAND2X1_10
*749 NAND2X1_8
*750 OR2X2_1
*751 INVX1_23
*752 _20_
*753 OR2X2_1
*754 NOR3X1_1
*755 NOR2X1_4
*756 NOR2X1_1
*757 INVX4_2
*758 _59_
*759 NAND2X1_5
*760 NOR3X1_4
*761 NOR2X1_4
*762 INVX2_1
*763 NOR2X1_11
*764 _60_
*765 NOR2X1_4
*766 NAND2X1_38
*767 NAND2X1_62
*768 AOI22X1_23
*769 INVX4_4
*770 _67_
*771 NAND2X1_6
*772 NOR2X1_8
*773 NOR2X1_7
*774 NOR2X1_9
*775 INVX2_2
*776 _71_
*777 NAND2X1_8
*778 NOR3X1_2
*779 NOR2X1_11
*780 NOR2X1_5
*781 NOR2X1_12
*782 _80_
*783 INVX2_3
*784 NAND3X1_14
*785 NAND3X1_7
*786 NAND3X1_26
*787 NAND2X1_11
*788 _28_
*789 NAND2X1_3
*790 NOR2X1_7
*791 NOR2X1_10
*792 INVX4_3
*793 _65_
*794 INVX2_1
*795 NAND3X1_16
*796 NAND3X1_28
*797 NAND2X1_7
*798 _68_
*799 INVX2_2
*800 NAND3X1_16
*801 NAND2X1_7
*802 NAND3X1_28
*803 _72_
*804 NOR3X1_2
*805 AOI22X1_21
*806 AOI22X1_13
*807 INVX4_5
*808 _76_
*809 NAND2X1_9
*810 NOR2X1_12
*811 NOR2X1_8
*812 INVX1_26
*813 _79_
*814 NAND2X1_10
*815 INVX2_3
*816 NOR2X1_6
*817 NOR2X1_10
*818 _124_
*819 INVX2_4
*820 NAND3X1_7
*821 NAND3X1_14
*822 NAND3X1_26
*823 _175_
*824 INVX2_5
*825 OAI21X1_15
*826 NOR2X1_28
*827 OAI21X1_9
*828 _17_
*829 INVX1_1
*830 OAI22X1_8
*831 MUX2X1_1
*832 _19_
*833 INVX1_2
*834 NOR3X1_1
*835 NAND2X1_3
*836 we
*837 NAND2X1_1
*838 NOR2X1_2
*839 mem[1][0]
*840 DFFPOSX1_9
*841 INVX1_3
*842 NAND3X1_2
*843 mem[1][1]
*844 DFFPOSX1_10
*845 INVX1_4
*846 NAND3X1_5
*847 mem[1][2]
*848 DFFPOSX1_11
*849 INVX1_5
*850 NAND3X1_9
*851 mem[1][3]
*852 DFFPOSX1_12
*853 NAND3X1_12
*854 INVX1_6
*855 mem[1][4]
*856 DFFPOSX1_13
*857 INVX1_7
*858 NAND3X1_17
*859 mem[1][5]
*860 DFFPOSX1_14
*861 NAND3X1_21
*862 INVX1_8
*863 mem[1][6]
*864 DFFPOSX1_15
*865 NAND3X1_24
*866 INVX1_9
*867 mem[1][7]
*868 DFFPOSX1_16
*869 NAND3X1_29
*870 INVX1_10
*871 mem[0][0]
*872 DFFPOSX1_1
*873 AOI22X1_3
*874 INVX1_11
*875 mem[0][1]
*876 DFFPOSX1_2
*877 INVX1_12
*878 AOI22X1_6
*879 mem[0][2]
*880 DFFPOSX1_3
*881 AOI22X1_9
*882 INVX1_13
*883 mem[0][3]
*884 DFFPOSX1_4
*885 INVX1_14
*886 AOI22X1_12
*887 mem[0][4]
*888 DFFPOSX1_5
*889 INVX1_15
*890 NAND2X1_36
*891 mem[0][5]
*892 DFFPOSX1_6
*893 AOI22X1_17
*894 INVX1_16
*895 mem[0][6]
*896 DFFPOSX1_7
*897 INVX1_17
*898 AOI22X1_20
*899 mem[0][7]
*900 DFFPOSX1_8
*901 INVX1_18
*902 NAND2X1_53
*903 _357_[0]
*904 DFFSR_1
*905 BUFX2_1
*906 NOR2X1_3
*907 _58_
*908 INVX1_20
*909 OAI21X1_1
*910 MUX2X1_88
*911 _63_
*912 INVX1_21
*913 OAI22X1_1
*914 MUX2X1_20
*915 _64_
*916 INVX1_22
*917 MUX2X1_58
*918 OAI22X1_1
*919 _66_
*920 INVX1_23
*921 NAND2X1_6
*922 NOR3X1_4
*923 _70_
*924 INVX1_24
*925 NOR3X1_2
*926 NAND2X1_9
*927 _75_
*928 INVX1_25
*929 OAI21X1_2
*930 MUX2X1_34
*931 mem[12][0]
*932 DFFPOSX1_97
*933 INVX1_57
*934 NAND2X1_12
*935 mem[8][0]
*936 DFFPOSX1_65
*937 NAND2X1_13
*938 INVX1_71
*939 mem[5][0]
*940 DFFPOSX1_41
*941 NAND2X1_14
*942 INVX1_87
*943 mem[2][0]
*944 DFFPOSX1_17
*945 INVX1_105
*946 AOI22X1_1
*947 mem[6][0]
*948 DFFPOSX1_49
*949 INVX1_79
*950 AOI22X1_1
*951 mem[4][0]
*952 DFFPOSX1_33
*953 INVX1_95
*954 AOI22X1_2
*955 mem[9][0]
*956 DFFPOSX1_73
*957 INVX1_65
*958 AOI22X1_2
*959 mem[15][0]
*960 DFFPOSX1_121
*961 NOR2X1_20
*962 AOI22X1_3
*963 mem[11][0]
*964 DFFPOSX1_89
*965 NOR2X1_38
*966 NAND2X1_16
*967 mem[14][0]
*968 DFFPOSX1_113
*969 NAND2X1_17
*970 NOR2X1_29
*971 _357_[1]
*972 DFFSR_2
*973 NOR2X1_13
*974 BUFX2_2
*975 _107_
*976 INVX1_28
*977 OAI21X1_3
*978 MUX2X1_89
*979 _109_
*980 INVX1_29
*981 MUX2X1_21
*982 OAI22X1_2
*983 _110_
*984 INVX1_30
*985 OAI22X1_2
*986 MUX2X1_59
*987 _112_
*988 INVX1_31
*989 MUX2X1_35
*990 OAI21X1_4
*991 mem[12][1]
*992 DFFPOSX1_98
*993 NAND2X1_18
*994 INVX1_58
*995 mem[11][1]
*996 DFFPOSX1_90
*997 NAND2X1_19
*998 NOR2X1_39
*999 mem[5][1]
*1000 DFFPOSX1_42
*1001 INVX1_88
*1002 NAND2X1_20
*1003 mem[2][1]
*1004 DFFPOSX1_18
*1005 AOI22X1_4
*1006 INVX1_106
*1007 mem[6][1]
*1008 DFFPOSX1_50
*1009 AOI22X1_4
*1010 INVX1_80
*1011 mem[4][1]
*1012 DFFPOSX1_34
*1013 AOI22X1_5
*1014 INVX1_96
*1015 mem[9][1]
*1016 DFFPOSX1_74
*1017 INVX1_66
*1018 AOI22X1_5
*1019 mem[15][1]
*1020 DFFPOSX1_122
*1021 AOI22X1_6
*1022 NOR2X1_21
*1023 mem[8][1]
*1024 DFFPOSX1_66
*1025 INVX1_72
*1026 NAND3X1_7
*1027 mem[14][1]
*1028 DFFPOSX1_114
*1029 NOR2X1_30
*1030 NAND2X1_22
*1031 _357_[2]
*1032 DFFSR_3
*1033 BUFX2_3
*1034 NOR2X1_14
*1035 _130_
*1036 INVX1_32
*1037 OAI21X1_5
*1038 MUX2X1_90
*1039 _132_
*1040 INVX1_33
*1041 MUX2X1_22
*1042 OAI22X1_3
*1043 _133_
*1044 INVX1_34
*1045 OAI22X1_3
*1046 MUX2X1_60
*1047 _135_
*1048 INVX1_35
*1049 MUX2X1_36
*1050 OAI21X1_6
*1051 mem[12][2]
*1052 DFFPOSX1_99
*1053 NAND2X1_23
*1054 INVX1_59
*1055 mem[8][2]
*1056 DFFPOSX1_67
*1057 INVX1_73
*1058 NAND2X1_24
*1059 mem[5][2]
*1060 DFFPOSX1_43
*1061 NAND2X1_25
*1062 INVX1_89
*1063 mem[2][2]
*1064 DFFPOSX1_19
*1065 INVX1_107
*1066 AOI22X1_7
*1067 mem[6][2]
*1068 DFFPOSX1_51
*1069 AOI22X1_7
*1070 INVX1_81
*1071 mem[4][2]
*1072 DFFPOSX1_35
*1073 AOI22X1_8
*1074 INVX1_97
*1075 mem[9][2]
*1076 DFFPOSX1_75
*1077 INVX1_67
*1078 AOI22X1_8
*1079 mem[15][2]
*1080 DFFPOSX1_123
*1081 NOR2X1_22
*1082 AOI22X1_9
*1083 mem[11][2]
*1084 DFFPOSX1_91
*1085 NOR2X1_40
*1086 NAND2X1_27
*1087 mem[14][2]
*1088 DFFPOSX1_115
*1089 NAND2X1_28
*1090 NOR2X1_31
*1091 _357_[3]
*1092 DFFSR_4
*1093 NOR2X1_15
*1094 BUFX2_4
*1095 _152_
*1096 INVX1_36
*1097 MUX2X1_91
*1098 OAI21X1_7
*1099 _154_
*1100 INVX1_37
*1101 MUX2X1_23
*1102 OAI22X1_4
*1103 _155_
*1104 INVX1_38
*1105 MUX2X1_61
*1106 OAI22X1_4
*1107 _157_
*1108 INVX1_39
*1109 OAI21X1_8
*1110 MUX2X1_37
*1111 mem[12][3]
*1112 DFFPOSX1_100
*1113 INVX1_60
*1114 NAND2X1_29
*1115 mem[11][3]
*1116 DFFPOSX1_92
*1117 NOR2X1_41
*1118 NAND2X1_30
*1119 mem[5][3]
*1120 DFFPOSX1_44
*1121 INVX1_90
*1122 NAND2X1_31
*1123 mem[2][3]
*1124 DFFPOSX1_20
*1125 AOI22X1_10
*1126 INVX1_108
*1127 mem[6][3]
*1128 DFFPOSX1_52
*1129 AOI22X1_10
*1130 INVX1_82
*1131 mem[4][3]
*1132 DFFPOSX1_36
*1133 INVX1_98
*1134 AOI22X1_11
*1135 mem[9][3]
*1136 DFFPOSX1_76
*1137 AOI22X1_11
*1138 INVX1_68
*1139 mem[15][3]
*1140 DFFPOSX1_124
*1141 NOR2X1_23
*1142 AOI22X1_12
*1143 mem[8][3]
*1144 DFFPOSX1_68
*1145 INVX1_74
*1146 NAND3X1_14
*1147 mem[14][3]
*1148 DFFPOSX1_116
*1149 NAND2X1_33
*1150 NOR2X1_32
*1151 _357_[4]
*1152 DFFSR_5
*1153 BUFX2_5
*1154 NOR2X1_16
*1155 _174_
*1156 INVX1_40
*1157 OAI21X1_9
*1158 MUX2X1_18
*1159 _177_
*1160 INVX1_41
*1161 MUX2X1_38
*1162 OAI22X1_5
*1163 _178_
*1164 INVX1_42
*1165 MUX2X1_100
*1166 OAI22X1_5
*1167 _179_
*1168 INVX1_43
*1169 OAI22X1_5
*1170 OAI22X1_8
*1171 _181_
*1172 INVX1_44
*1173 MUX2X1_46
*1174 OAI21X1_10
*1175 _182_
*1176 INVX1_45
*1177 OAI21X1_10
*1178 OAI21X1_16
*1179 mem[6][4]
*1180 DFFPOSX1_53
*1181 INVX1_83
*1182 NAND2X1_34
*1183 mem[7][4]
*1184 DFFPOSX1_61
*1185 NAND3X1_16
*1186 NOR2X1_47
*1187 mem[8][4]
*1188 DFFPOSX1_69
*1189 INVX1_75
*1190 NAND2X1_35
*1191 mem[13][4]
*1192 DFFPOSX1_109
*1193 AOI22X1_13
*1194 NOR2X1_36
*1195 mem[12][4]
*1196 DFFPOSX1_101
*1197 INVX1_61
*1198 AOI22X1_13
*1199 mem[4][4]
*1200 DFFPOSX1_37
*1201 INVX1_99
*1202 NAND2X1_37
*1203 mem[15][4]
*1204 DFFPOSX1_125
*1205 NOR2X1_24
*1206 AOI22X1_14
*1207 mem[11][4]
*1208 DFFPOSX1_93
*1209 NOR2X1_42
*1210 AOI22X1_14
*1211 mem[3][4]
*1212 DFFPOSX1_29
*1213 INVX1_103
*1214 NAND2X1_38
*1215 mem[5][4]
*1216 DFFPOSX1_45
*1217 INVX1_91
*1218 NAND2X1_39
*1219 _357_[5]
*1220 DFFSR_6
*1221 NOR2X1_17
*1222 BUFX2_6
*1223 _200_
*1224 INVX1_46
*1225 MUX2X1_93
*1226 OAI21X1_11
*1227 _202_
*1228 INVX1_47
*1229 MUX2X1_24
*1230 OAI22X1_6
*1231 _203_
*1232 INVX1_48
*1233 OAI22X1_6
*1234 MUX2X1_62
*1235 _205_
*1236 INVX1_49
*1237 MUX2X1_39
*1238 OAI21X1_12
*1239 mem[12][5]
*1240 DFFPOSX1_102
*1241 NAND2X1_40
*1242 INVX1_62
*1243 mem[8][5]
*1244 DFFPOSX1_70
*1245 NAND2X1_41
*1246 INVX1_76
*1247 mem[5][5]
*1248 DFFPOSX1_46
*1249 NAND2X1_42
*1250 INVX1_92
*1251 mem[2][5]
*1252 DFFPOSX1_22
*1253 INVX1_109
*1254 AOI22X1_15
*1255 mem[6][5]
*1256 DFFPOSX1_54
*1257 INVX1_84
*1258 AOI22X1_15
*1259 mem[4][5]
*1260 DFFPOSX1_38
*1261 INVX1_100
*1262 AOI22X1_16
*1263 mem[9][5]
*1264 DFFPOSX1_78
*1265 AOI22X1_16
*1266 INVX1_69
*1267 mem[15][5]
*1268 DFFPOSX1_126
*1269 AOI22X1_17
*1270 NOR2X1_25
*1271 mem[11][5]
*1272 DFFPOSX1_94
*1273 NOR2X1_43
*1274 NAND2X1_44
*1275 mem[14][5]
*1276 DFFPOSX1_118
*1277 NAND2X1_45
*1278 NOR2X1_33
*1279 _357_[6]
*1280 DFFSR_7
*1281 NOR2X1_18
*1282 BUFX2_7
*1283 _222_
*1284 INVX1_50
*1285 MUX2X1_94
*1286 OAI21X1_13
*1287 _224_
*1288 INVX1_51
*1289 MUX2X1_25
*1290 OAI22X1_7
*1291 _225_
*1292 INVX1_52
*1293 OAI22X1_7
*1294 MUX2X1_63
*1295 _227_
*1296 INVX1_53
*1297 OAI21X1_14
*1298 MUX2X1_40
*1299 mem[12][6]
*1300 DFFPOSX1_103
*1301 INVX1_63
*1302 NAND2X1_46
*1303 mem[11][6]
*1304 DFFPOSX1_95
*1305 NAND2X1_47
*1306 NOR2X1_44
*1307 mem[5][6]
*1308 DFFPOSX1_47
*1309 INVX1_93
*1310 NAND2X1_48
*1311 mem[2][6]
*1312 DFFPOSX1_23
*1313 AOI22X1_18
*1314 INVX1_110
*1315 mem[6][6]
*1316 DFFPOSX1_55
*1317 INVX1_85
*1318 AOI22X1_18
*1319 mem[4][6]
*1320 DFFPOSX1_39
*1321 INVX1_101
*1322 AOI22X1_19
*1323 mem[9][6]
*1324 DFFPOSX1_79
*1325 AOI22X1_19
*1326 INVX1_70
*1327 mem[15][6]
*1328 DFFPOSX1_127
*1329 NOR2X1_26
*1330 AOI22X1_20
*1331 mem[8][6]
*1332 DFFPOSX1_71
*1333 INVX1_77
*1334 NAND3X1_26
*1335 mem[14][6]
*1336 DFFPOSX1_119
*1337 NOR2X1_34
*1338 NAND2X1_50
*1339 _357_[7]
*1340 DFFSR_8
*1341 NOR2X1_19
*1342 BUFX2_8
*1343 _244_
*1344 INVX1_54
*1345 MUX2X1_19
*1346 OAI21X1_15
*1347 _246_
*1348 INVX1_55
*1349 MUX2X1_41
*1350 OAI22X1_8
*1351 _248_
*1352 INVX1_56
*1353 OAI21X1_16
*1354 MUX2X1_49
*1355 mem[6][7]
*1356 DFFPOSX1_56
*1357 NAND2X1_51
*1358 INVX1_86
*1359 mem[7][7]
*1360 DFFPOSX1_64
*1361 NOR2X1_48
*1362 NAND3X1_28
*1363 mem[11][7]
*1364 DFFPOSX1_96
*1365 NOR2X1_45
*1366 NAND2X1_52
*1367 mem[13][7]
*1368 DFFPOSX1_112
*1369 NOR2X1_37
*1370 AOI22X1_21
*1371 mem[12][7]
*1372 DFFPOSX1_104
*1373 INVX1_64
*1374 AOI22X1_21
*1375 mem[4][7]
*1376 DFFPOSX1_40
*1377 NAND2X1_54
*1378 INVX1_102
*1379 mem[15][7]
*1380 DFFPOSX1_128
*1381 NOR2X1_27
*1382 AOI22X1_22
*1383 mem[8][7]
*1384 DFFPOSX1_72
*1385 INVX1_78
*1386 AOI22X1_22
*1387 mem[3][7]
*1388 DFFPOSX1_32
*1389 INVX1_104
*1390 AOI22X1_23
*1391 mem[5][7]
*1392 DFFPOSX1_48
*1393 AOI22X1_23
*1394 INVX1_94
*1395 mem[2][7]
*1396 DFFPOSX1_24
*1397 INVX1_1
*1398 din[7]
*1399 INVX8_1
*1400 cs
*1401 NAND2X1_1
*1402 _9_[7]
*1403 MUX2X1_1
*1404 DFFPOSX1_24
*1405 _25_
*1406 INVX1_3
*1407 MUX2X1_2
*1408 din[0]
*1409 INVX8_2
*1410 _8_[0]
*1411 MUX2X1_2
*1412 DFFPOSX1_9
*1413 _31_
*1414 INVX1_4
*1415 MUX2X1_3
*1416 din[1]
*1417 INVX8_3
*1418 _8_[1]
*1419 MUX2X1_3
*1420 DFFPOSX1_10
*1421 _33_
*1422 INVX1_5
*1423 MUX2X1_4
*1424 din[2]
*1425 INVX8_4
*1426 _8_[2]
*1427 MUX2X1_4
*1428 DFFPOSX1_11
*1429 _35_
*1430 INVX1_6
*1431 MUX2X1_5
*1432 din[3]
*1433 INVX8_5
*1434 _8_[3]
*1435 MUX2X1_5
*1436 DFFPOSX1_12
*1437 _37_
*1438 INVX1_7
*1439 MUX2X1_6
*1440 din[4]
*1441 INVX8_6
*1442 _8_[4]
*1443 MUX2X1_6
*1444 DFFPOSX1_13
*1445 _39_
*1446 INVX1_8
*1447 MUX2X1_7
*1448 din[5]
*1449 INVX8_7
*1450 _8_[5]
*1451 MUX2X1_7
*1452 DFFPOSX1_14
*1453 _41_
*1454 INVX1_9
*1455 MUX2X1_8
*1456 din[6]
*1457 INVX8_8
*1458 _8_[6]
*1459 MUX2X1_8
*1460 DFFPOSX1_15
*1461 _43_
*1462 INVX1_10
*1463 MUX2X1_9
*1464 _8_[7]
*1465 MUX2X1_9
*1466 DFFPOSX1_16
*1467 _44_
*1468 INVX1_11
*1469 MUX2X1_10
*1470 _1_[0]
*1471 MUX2X1_10
*1472 DFFPOSX1_1
*1473 _48_
*1474 INVX1_12
*1475 MUX2X1_11
*1476 _1_[1]
*1477 MUX2X1_11
*1478 DFFPOSX1_2
*1479 _49_
*1480 INVX1_13
*1481 MUX2X1_12
*1482 _1_[2]
*1483 MUX2X1_12
*1484 DFFPOSX1_3
*1485 _50_
*1486 INVX1_14
*1487 MUX2X1_13
*1488 _1_[3]
*1489 MUX2X1_13
*1490 DFFPOSX1_4
*1491 _51_
*1492 INVX1_15
*1493 MUX2X1_14
*1494 _1_[4]
*1495 MUX2X1_14
*1496 DFFPOSX1_5
*1497 _52_
*1498 INVX1_16
*1499 MUX2X1_15
*1500 _1_[5]
*1501 MUX2X1_15
*1502 DFFPOSX1_6
*1503 _53_
*1504 INVX1_17
*1505 MUX2X1_16
*1506 _1_[6]
*1507 MUX2X1_16
*1508 DFFPOSX1_7
*1509 _54_
*1510 INVX1_18
*1511 MUX2X1_17
*1512 _1_[7]
*1513 MUX2X1_17
*1514 DFFPOSX1_8
*1515 re
*1516 INVX1_19
*1517 _55_
*1518 INVX1_19
*1519 NOR2X1_2
*1520 _57_
*1521 NOR2X1_3
*1522 AOI21X1_1
*1523 mem[3][0]
*1524 DFFPOSX1_25
*1525 INVX1_20
*1526 _62_
*1527 OAI21X1_1
*1528 NOR3X1_3
*1529 mem[13][0]
*1530 DFFPOSX1_105
*1531 INVX1_21
*1532 mem[7][0]
*1533 DFFPOSX1_57
*1534 INVX1_22
*1535 _74_
*1536 OAI22X1_1
*1537 NOR3X1_3
*1538 mem[10][0]
*1539 DFFPOSX1_81
*1540 INVX1_25
*1541 _77_
*1542 INVX1_26
*1543 NAND2X1_11
*1544 _78_
*1545 INVX1_27
*1546 NAND2X1_10
*1547 _83_
*1548 NAND2X1_12
*1549 OAI21X1_2
*1550 _84_
*1551 OAI21X1_2
*1552 NOR3X1_3
*1553 _85_
*1554 NOR3X1_3
*1555 AOI21X1_1
*1556 _87_
*1557 NAND2X1_13
*1558 NAND3X1_3
*1559 _88_
*1560 NAND3X1_2
*1561 NAND3X1_3
*1562 _90_
*1563 NAND2X1_14
*1564 NAND3X1_3
*1565 _91_
*1566 NAND3X1_3
*1567 NOR3X1_5
*1568 _93_
*1569 AOI22X1_1
*1570 NAND2X1_15
*1571 _96_
*1572 AOI22X1_2
*1573 NAND2X1_15
*1574 _97_
*1575 NAND2X1_15
*1576 NOR3X1_5
*1577 _99_
*1578 AOI22X1_3
*1579 NAND3X1_4
*1580 _101_
*1581 NAND2X1_16
*1582 NAND3X1_4
*1583 _103_
*1584 NAND2X1_17
*1585 NAND3X1_4
*1586 _104_
*1587 NAND3X1_4
*1588 NOR3X1_5
*1589 _105_
*1590 NOR3X1_5
*1591 AOI21X1_1
*1592 _0_[0]
*1593 AOI21X1_1
*1594 DFFSR_1
*1595 _106_
*1596 NOR2X1_13
*1597 AOI21X1_2
*1598 mem[3][1]
*1599 DFFPOSX1_26
*1600 INVX1_28
*1601 _108_
*1602 OAI21X1_3
*1603 NOR3X1_6
*1604 mem[13][1]
*1605 DFFPOSX1_106
*1606 INVX1_29
*1607 mem[7][1]
*1608 DFFPOSX1_58
*1609 INVX1_30
*1610 _111_
*1611 OAI22X1_2
*1612 NOR3X1_6
*1613 mem[10][1]
*1614 DFFPOSX1_82
*1615 INVX1_31
*1616 _113_
*1617 NAND2X1_18
*1618 OAI21X1_4
*1619 _114_
*1620 OAI21X1_4
*1621 NOR3X1_6
*1622 _115_
*1623 NOR3X1_6
*1624 AOI21X1_2
*1625 _116_
*1626 NAND2X1_19
*1627 NAND3X1_6
*1628 _117_
*1629 NAND3X1_5
*1630 NAND3X1_6
*1631 _118_
*1632 NAND2X1_20
*1633 NAND3X1_6
*1634 _119_
*1635 NAND3X1_6
*1636 NOR3X1_7
*1637 _120_
*1638 AOI22X1_4
*1639 NAND2X1_21
*1640 _121_
*1641 AOI22X1_5
*1642 NAND2X1_21
*1643 _122_
*1644 NAND2X1_21
*1645 NOR3X1_7
*1646 _123_
*1647 AOI22X1_6
*1648 NAND3X1_8
*1649 _125_
*1650 NAND3X1_7
*1651 NAND3X1_8
*1652 _126_
*1653 NAND2X1_22
*1654 NAND3X1_8
*1655 _127_
*1656 NAND3X1_8
*1657 NOR3X1_7
*1658 _128_
*1659 NOR3X1_7
*1660 AOI21X1_2
*1661 _0_[1]
*1662 AOI21X1_2
*1663 DFFSR_2
*1664 _129_
*1665 NOR2X1_14
*1666 AOI21X1_3
*1667 mem[3][2]
*1668 DFFPOSX1_27
*1669 INVX1_32
*1670 _131_
*1671 OAI21X1_5
*1672 NOR3X1_8
*1673 mem[13][2]
*1674 DFFPOSX1_107
*1675 INVX1_33
*1676 mem[7][2]
*1677 DFFPOSX1_59
*1678 INVX1_34
*1679 _134_
*1680 OAI22X1_3
*1681 NOR3X1_8
*1682 mem[10][2]
*1683 DFFPOSX1_83
*1684 INVX1_35
*1685 _136_
*1686 NAND2X1_23
*1687 OAI21X1_6
*1688 _137_
*1689 OAI21X1_6
*1690 NOR3X1_8
*1691 _138_
*1692 NOR3X1_8
*1693 AOI21X1_3
*1694 _139_
*1695 NAND2X1_24
*1696 NAND3X1_10
*1697 _140_
*1698 NAND3X1_9
*1699 NAND3X1_10
*1700 _141_
*1701 NAND2X1_25
*1702 NAND3X1_10
*1703 _142_
*1704 NAND3X1_10
*1705 NOR3X1_9
*1706 _143_
*1707 AOI22X1_7
*1708 NAND2X1_26
*1709 _144_
*1710 AOI22X1_8
*1711 NAND2X1_26
*1712 _145_
*1713 NAND2X1_26
*1714 NOR3X1_9
*1715 _146_
*1716 AOI22X1_9
*1717 NAND3X1_11
*1718 _147_
*1719 NAND2X1_27
*1720 NAND3X1_11
*1721 _148_
*1722 NAND2X1_28
*1723 NAND3X1_11
*1724 _149_
*1725 NAND3X1_11
*1726 NOR3X1_9
*1727 _150_
*1728 NOR3X1_9
*1729 AOI21X1_3
*1730 _0_[2]
*1731 AOI21X1_3
*1732 DFFSR_3
*1733 _151_
*1734 NOR2X1_15
*1735 AOI21X1_4
*1736 mem[3][3]
*1737 DFFPOSX1_28
*1738 INVX1_36
*1739 _153_
*1740 OAI21X1_7
*1741 NOR3X1_10
*1742 mem[13][3]
*1743 DFFPOSX1_108
*1744 INVX1_37
*1745 mem[7][3]
*1746 DFFPOSX1_60
*1747 INVX1_38
*1748 _156_
*1749 OAI22X1_4
*1750 NOR3X1_10
*1751 mem[10][3]
*1752 DFFPOSX1_84
*1753 INVX1_39
*1754 _158_
*1755 NAND2X1_29
*1756 OAI21X1_8
*1757 _159_
*1758 OAI21X1_8
*1759 NOR3X1_10
*1760 _160_
*1761 NOR3X1_10
*1762 AOI21X1_4
*1763 _161_
*1764 NAND2X1_30
*1765 NAND3X1_13
*1766 _162_
*1767 NAND3X1_12
*1768 NAND3X1_13
*1769 _163_
*1770 NAND2X1_31
*1771 NAND3X1_13
*1772 _164_
*1773 NAND3X1_13
*1774 NOR3X1_11
*1775 _165_
*1776 AOI22X1_10
*1777 NAND2X1_32
*1778 _166_
*1779 AOI22X1_11
*1780 NAND2X1_32
*1781 _167_
*1782 NAND2X1_32
*1783 NOR3X1_11
*1784 _168_
*1785 AOI22X1_12
*1786 NAND3X1_15
*1787 _169_
*1788 NAND3X1_14
*1789 NAND3X1_15
*1790 _170_
*1791 NAND2X1_33
*1792 NAND3X1_15
*1793 _171_
*1794 NAND3X1_15
*1795 NOR3X1_11
*1796 _172_
*1797 NOR3X1_11
*1798 AOI21X1_4
*1799 _0_[3]
*1800 AOI21X1_4
*1801 DFFSR_4
*1802 _173_
*1803 NOR2X1_16
*1804 AOI21X1_5
*1805 mem[14][4]
*1806 DFFPOSX1_117
*1807 INVX1_40
*1808 _176_
*1809 OAI21X1_9
*1810 NOR3X1_12
*1811 mem[10][4]
*1812 DFFPOSX1_85
*1813 INVX1_41
*1814 mem[2][4]
*1815 DFFPOSX1_21
*1816 INVX1_42
*1817 _180_
*1818 OAI22X1_5
*1819 NOR3X1_12
*1820 mem[9][4]
*1821 DFFPOSX1_77
*1822 INVX1_44
*1823 _183_
*1824 NAND2X1_34
*1825 OAI21X1_10
*1826 _184_
*1827 OAI21X1_10
*1828 NOR3X1_12
*1829 _185_
*1830 NOR3X1_12
*1831 AOI21X1_5
*1832 _186_
*1833 NAND3X1_16
*1834 NAND3X1_18
*1835 _187_
*1836 NAND3X1_17
*1837 NAND3X1_18
*1838 _188_
*1839 NAND2X1_35
*1840 NAND3X1_18
*1841 _189_
*1842 NAND3X1_18
*1843 NOR3X1_13
*1844 _190_
*1845 AOI22X1_13
*1846 NAND3X1_19
*1847 _191_
*1848 NAND2X1_36
*1849 NAND3X1_19
*1850 _192_
*1851 NAND2X1_37
*1852 NAND3X1_19
*1853 _193_
*1854 NAND3X1_19
*1855 NOR3X1_13
*1856 _194_
*1857 AOI22X1_14
*1858 NAND3X1_20
*1859 _195_
*1860 NAND2X1_38
*1861 NAND3X1_20
*1862 _196_
*1863 NAND2X1_39
*1864 NAND3X1_20
*1865 _197_
*1866 NAND3X1_20
*1867 NOR3X1_13
*1868 _198_
*1869 NOR3X1_13
*1870 AOI21X1_5
*1871 _0_[4]
*1872 AOI21X1_5
*1873 DFFSR_5
*1874 _199_
*1875 NOR2X1_17
*1876 AOI21X1_6
*1877 mem[3][5]
*1878 DFFPOSX1_30
*1879 INVX1_46
*1880 _201_
*1881 OAI21X1_11
*1882 NOR3X1_14
*1883 mem[13][5]
*1884 DFFPOSX1_110
*1885 INVX1_47
*1886 mem[7][5]
*1887 DFFPOSX1_62
*1888 INVX1_48
*1889 _204_
*1890 OAI22X1_6
*1891 NOR3X1_14
*1892 mem[10][5]
*1893 DFFPOSX1_86
*1894 INVX1_49
*1895 _206_
*1896 NAND2X1_40
*1897 OAI21X1_12
*1898 _207_
*1899 OAI21X1_12
*1900 NOR3X1_14
*1901 _208_
*1902 NOR3X1_14
*1903 AOI21X1_6
*1904 _209_
*1905 NAND2X1_41
*1906 NAND3X1_22
*1907 _210_
*1908 NAND3X1_21
*1909 NAND3X1_22
*1910 _211_
*1911 NAND2X1_42
*1912 NAND3X1_22
*1913 _212_
*1914 NAND3X1_22
*1915 NOR3X1_15
*1916 _213_
*1917 AOI22X1_15
*1918 NAND2X1_43
*1919 _214_
*1920 AOI22X1_16
*1921 NAND2X1_43
*1922 _215_
*1923 NAND2X1_43
*1924 NOR3X1_15
*1925 _216_
*1926 AOI22X1_17
*1927 NAND3X1_23
*1928 _217_
*1929 NAND2X1_44
*1930 NAND3X1_23
*1931 _218_
*1932 NAND2X1_45
*1933 NAND3X1_23
*1934 _219_
*1935 NAND3X1_23
*1936 NOR3X1_15
*1937 _220_
*1938 NOR3X1_15
*1939 AOI21X1_6
*1940 _0_[5]
*1941 AOI21X1_6
*1942 DFFSR_6
*1943 _221_
*1944 NOR2X1_18
*1945 AOI21X1_7
*1946 mem[3][6]
*1947 DFFPOSX1_31
*1948 INVX1_50
*1949 _223_
*1950 OAI21X1_13
*1951 NOR3X1_16
*1952 mem[13][6]
*1953 DFFPOSX1_111
*1954 INVX1_51
*1955 mem[7][6]
*1956 DFFPOSX1_63
*1957 INVX1_52
*1958 _226_
*1959 OAI22X1_7
*1960 NOR3X1_16
*1961 mem[10][6]
*1962 DFFPOSX1_87
*1963 INVX1_53